Z1269227074
  xed2sdf_05210316543D
 
 13 13  0  0  0  0  0  0  0  0999 V2000
   -0.0152    0.0184    0.0000 O   0  0  0  0  0  0  0  0  0  0  0  0
    1.3498    0.0019    0.0000 C   0  0  0  0  0  0  0  0  0  0  0  0
    2.0601    1.2194    0.0000 C   0  0  0  0  0  0  0  0  0  0  0  0
    3.4685    1.2155    0.0000 C   0  0  0  0  0  0  0  0  0  0  0  0
    4.1694   -0.0060   -0.0000 C   0  0  0  0  0  0  0  0  0  0  0  0
    6.2604   -0.0132    0.0000 I   0  0  0  0  0  0  0  0  0  0  0  0
    3.4614   -1.2234    0.0000 C   0  0  0  0  0  0  0  0  0  0  0  0
    2.0525   -1.2229    0.0000 C   0  0  0  0  0  0  0  0  0  0  0  0
    1.0301   -3.0502   -0.0000 I   0  0  0  0  0  0  0  0  0  0  0  0
   -0.3767    0.8914    0.0000 H   0  0  0  0  0  0  0  0  0  0  0  0
    1.5276    2.1593   -0.0000 H   0  0  0  0  0  0  0  0  0  0  0  0
    4.0099    2.1500   -0.0000 H   0  0  0  0  0  0  0  0  0  0  0  0
    3.9995   -2.1597    0.0000 H   0  0  0  0  0  0  0  0  0  0  0  0
  1  2  1  0
  2  3  2  0
  2  8  1  0
  3  4  1  0
  4  5  2  0
  5  6  1  0
  5  7  1  0
  7  8  2  0
  8  9  1  0
  1 10  1  0
  3 11  1  0
  4 12  1  0
  7 13  1  0
M  END
>  <idnumber>
Z1269227074

>  <heavy_atoms>
9

>  <LogS>
-2.911

>  <LogP>
3.772

>  <rotating_bonds>
0

>  <PSA>
20.23

>  <hb_acceptors>
1

>  <hb_donors>
1

>  <MolWt>
345.905

>  <NumHAcceptors>
1

>  <NumRotatableBonds>
1

>  <RingCount>
1

>  <NumHDonors>
1

>  <DIR_1>
CB

>  <DIR_2>
CBFBBC

>  <Favorite_cresset>
false

>  <Radial Plot_cresset>
0.650

>  <Confs_cresset>
0

>  <Alns_cresset>
0

>  <MW_cresset>
345.9

>  <#Atoms_cresset>
9

>  <SlogP_cresset>
3.1

>  <TPSA_cresset>
20.2

>  <Flexibility_cresset>
0.5

>  <Rof5_cresset>
0

>  <Filename_cresset>
test.sdf

$$$$
Z1269227074 (1)
  xed2sdf_05210316543D
 
 12 12  0  0  0  0  0  0  0  0999 V2000
    0.4444    0.0468    2.3575 O   0  5  0  0  0  0  0  0  0  0  0  0
    0.2379   -0.6498    1.2014 C   0  0  0  0  0  0  0  0  0  0  0  0
    0.0039    0.0555    0.0035 C   0  0  0  0  0  0  0  0  0  0  0  0
   -0.2114   -0.6444   -1.1993 C   0  0  0  0  0  0  0  0  0  0  0  0
   -0.1930   -2.0524   -1.2066 C   0  0  0  0  0  0  0  0  0  0  0  0
   -0.5122   -3.0947   -2.9911 I   0  0  0  0  0  0  0  0  0  0  0  0
    0.0406   -2.7592   -0.0113 C   0  0  0  0  0  0  0  0  0  0  0  0
    0.2565   -2.0628    1.1944 C   0  0  0  0  0  0  0  0  0  0  0  0
    0.6001   -3.1558    2.9487 I   0  0  0  0  0  0  0  0  0  0  0  0
   -0.0111    1.1358    0.0047 H   0  0  0  0  0  0  0  0  0  0  0  0
   -0.3903   -0.0998   -2.1145 H   0  0  0  0  0  0  0  0  0  0  0  0
    0.0544   -3.8390   -0.0188 H   0  0  0  0  0  0  0  0  0  0  0  0
  1  2  1  0
  2  3  2  0
  2  8  1  0
  3  4  1  0
  4  5  2  0
  5  6  1  0
  5  7  1  0
  7  8  2  0
  8  9  1  0
  3 10  1  0
  4 11  1  0
  7 12  1  0
M  CHG  1   1  -1
M  END
>  <idnumber>
Z1269227074

>  <heavy_atoms>
9

>  <LogS>
-2.911

>  <LogP>
3.772

>  <rotating_bonds>
0

>  <PSA>
20.23

>  <hb_acceptors>
1

>  <hb_donors>
1

>  <MolWt>
344.897

>  <NumHAcceptors>
1

>  <NumRotatableBonds>
0

>  <RingCount>
1

>  <NumHDonors>
0

>  <DIR_1>
CA

>  <DIR_2>
CADBAC

>  <Favorite_cresset>
false

>  <Radial Plot_cresset>
0.650

>  <Confs_cresset>
0

>  <Alns_cresset>
0

>  <MW_cresset>
344.9

>  <#Atoms_cresset>
9

>  <SlogP_cresset>
3.1

>  <TPSA_cresset>
23.1

>  <Flexibility_cresset>
0

>  <Rof5_cresset>
0

>  <Filename_cresset>
test.sdf

$$$$
Z362776936
  xed2sdf_05210316543D
 
 16 16  0  0  0  0  0  0  0  0999 V2000
   -0.0313    0.1021    0.0000 C   0  0  0  0  0  0  0  0  0  0  0  0
    1.3834   -0.0209    0.0000 O   0  0  0  0  0  0  0  0  0  0  0  0
    1.9279   -1.2881    0.0000 C   0  0  0  0  0  0  0  0  0  0  0  0
    1.1575   -2.4793    0.0000 C   0  0  0  0  0  0  0  0  0  0  0  0
    1.7881   -3.7385   -0.0000 C   0  0  0  0  0  0  0  0  0  0  0  0
    3.1923   -3.8255    0.0000 C   0  0  0  0  0  0  0  0  0  0  0  0
    4.1276   -5.6955    0.0000 I   0  0  0  0  0  0  0  0  0  0  0  0
    3.9657   -2.6505    0.0000 C   0  0  0  0  0  0  0  0  0  0  0  0
    3.3370   -1.3902   -0.0000 C   0  0  0  0  0  0  0  0  0  0  0  0
    4.4113    0.1829    0.0000 Br  0  0  0  0  0  0  0  0  0  0  0  0
   -0.2998    1.1583   -0.0000 H   0  0  0  0  0  0  0  0  0  0  0  0
   -0.4712   -0.3494    0.8902 H   0  0  0  0  0  0  0  0  0  0  0  0
   -0.4712   -0.3494   -0.8902 H   0  0  0  0  0  0  0  0  0  0  0  0
    0.0784   -2.4543    0.0000 H   0  0  0  0  0  0  0  0  0  0  0  0
    1.1911   -4.6386    0.0000 H   0  0  0  0  0  0  0  0  0  0  0  0
    5.0438   -2.7149    0.0000 H   0  0  0  0  0  0  0  0  0  0  0  0
  1  2  1  0
  2  3  1  0
  3  4  2  0
  3  9  1  0
  4  5  1  0
  5  6  2  0
  6  7  1  0
  6  8  1  0
  8  9  2  0
  9 10  1  0
  1 11  1  0
  1 12  1  0
  1 13  1  0
  4 14  1  0
  5 15  1  0
  8 16  1  0
M  END
>  <idnumber>
Z362776936

>  <heavy_atoms>
10

>  <LogS>
-3.489

>  <LogP>
4.006

>  <rotating_bonds>
1

>  <PSA>
9.23

>  <hb_acceptors>
1

>  <hb_donors>
0

>  <MolWt>
312.932

>  <NumHAcceptors>
1

>  <NumRotatableBonds>
2

>  <RingCount>
1

>  <NumHDonors>
0

>  <DIR_1>
CC

>  <DIR_2>
CCGBAB

>  <Favorite_cresset>
false

>  <Radial Plot_cresset>
0.600

>  <Confs_cresset>
0

>  <Alns_cresset>
0

>  <MW_cresset>
312.9

>  <#Atoms_cresset>
10

>  <SlogP_cresset>
3.4

>  <TPSA_cresset>
9.2

>  <Flexibility_cresset>
0.5

>  <Rof5_cresset>
0

>  <Filename_cresset>
test.sdf

$$$$
Z1269121262
  xed2sdf_05210316543D
 
 12 12  0  0  0  0  0  0  0  0999 V2000
   -0.0393    1.3890   -0.0373 O   0  5  0  0  0  0  0  0  0  0  0  0
   -0.0064    0.0254   -0.0620 C   0  0  0  0  0  0  0  0  0  0  0  0
    0.0329   -0.6566   -1.2931 C   0  0  0  0  0  0  0  0  0  0  0  0
    0.0670   -2.0645   -1.3217 C   0  0  0  0  0  0  0  0  0  0  0  0
    0.1198   -2.9567   -3.0048 Br  0  0  0  0  0  0  0  0  0  0  0  0
    0.0618   -2.7966   -0.1132 C   0  0  0  0  0  0  0  0  0  0  0  0
    0.1078   -4.7039   -0.1478 Br  0  0  0  0  0  0  0  0  0  0  0  0
    0.0223   -2.1099    1.1209 C   0  0  0  0  0  0  0  0  0  0  0  0
    0.0141   -3.0640    2.7705 Br  0  0  0  0  0  0  0  0  0  0  0  0
   -0.0116   -0.7019    1.1435 C   0  0  0  0  0  0  0  0  0  0  0  0
    0.0371   -0.1003   -2.2193 H   0  0  0  0  0  0  0  0  0  0  0  0
   -0.0418   -0.1804    2.0892 H   0  0  0  0  0  0  0  0  0  0  0  0
  1  2  1  0
  2  3  2  0
  2 10  1  0
  3  4  1  0
  4  5  1  0
  4  6  2  0
  6  7  1  0
  6  8  1  0
  8  9  1  0
  8 10  2  0
  3 11  1  0
 10 12  1  0
M  CHG  1   1  -1
M  END
>  <idnumber>
Z1269121262

>  <heavy_atoms>
10

>  <LogS>
-4.285

>  <LogP>
4.101

>  <rotating_bonds>
0

>  <PSA>
20.23

>  <hb_acceptors>
1

>  <hb_donors>
1

>  <MolWt>
329.793

>  <NumHAcceptors>
1

>  <NumRotatableBonds>
0

>  <RingCount>
1

>  <NumHDonors>
0

>  <DIR_1>
CA

>  <DIR_2>
CAGBAC

>  <Favorite_cresset>
false

>  <Radial Plot_cresset>
0.517

>  <Confs_cresset>
0

>  <Alns_cresset>
0

>  <MW_cresset>
329.8

>  <#Atoms_cresset>
10

>  <SlogP_cresset>
3.9

>  <TPSA_cresset>
23.1

>  <Flexibility_cresset>
0

>  <Rof5_cresset>
0

>  <Filename_cresset>
test.sdf

$$$$
Z1269121262 (1)
  xed2sdf_05210316543D
 
 13 13  0  0  0  0  0  0  0  0999 V2000
   -0.0060    0.0041    0.0000 O   0  0  0  0  0  0  0  0  0  0  0  0
    1.3585    0.0048    0.0000 C   0  0  0  0  0  0  0  0  0  0  0  0
    2.0624   -1.2144    0.0000 C   0  0  0  0  0  0  0  0  0  0  0  0
    3.4711   -1.2194    0.0000 C   0  0  0  0  0  0  0  0  0  0  0  0
    4.3914   -2.8878   -0.0000 Br  0  0  0  0  0  0  0  0  0  0  0  0
    4.1825    0.0014    0.0000 C   0  0  0  0  0  0  0  0  0  0  0  0
    6.0903   -0.0009    0.0000 Br  0  0  0  0  0  0  0  0  0  0  0  0
    3.4740    1.2238    0.0000 C   0  0  0  0  0  0  0  0  0  0  0  0
    4.3985    2.8900   -0.0000 Br  0  0  0  0  0  0  0  0  0  0  0  0
    2.0652    1.2226    0.0000 C   0  0  0  0  0  0  0  0  0  0  0  0
   -0.3800    0.8720   -0.0000 H   0  0  0  0  0  0  0  0  0  0  0  0
    1.5221   -2.1499   -0.0000 H   0  0  0  0  0  0  0  0  0  0  0  0
    1.5286    2.1601    0.0000 H   0  0  0  0  0  0  0  0  0  0  0  0
  1  2  1  0
  2  3  2  0
  2 10  1  0
  3  4  1  0
  4  5  1  0
  4  6  2  0
  6  7  1  0
  6  8  1  0
  8  9  1  0
  8 10  2  0
  1 11  1  0
  3 12  1  0
 10 13  1  0
M  END
>  <idnumber>
Z1269121262

>  <heavy_atoms>
10

>  <LogS>
-4.285

>  <LogP>
4.101

>  <rotating_bonds>
0

>  <PSA>
20.23

>  <hb_acceptors>
1

>  <hb_donors>
1

>  <MolWt>
330.801

>  <NumHAcceptors>
1

>  <NumRotatableBonds>
1

>  <RingCount>
1

>  <NumHDonors>
1

>  <DIR_1>
CB

>  <DIR_2>
CBHBBC

>  <Favorite_cresset>
false

>  <Radial Plot_cresset>
0.517

>  <Confs_cresset>
0

>  <Alns_cresset>
0

>  <MW_cresset>
330.8

>  <#Atoms_cresset>
10

>  <SlogP_cresset>
3.9

>  <TPSA_cresset>
20.2

>  <Flexibility_cresset>
0.5

>  <Rof5_cresset>
0

>  <Filename_cresset>
test.sdf

$$$$
Z1269132508
  xed2sdf_05210316543D
 
 18 18  0  0  0  0  0  0  0  0999 V2000
   -0.0457    0.0685    0.0425 C   0  0  0  0  0  0  0  0  0  0  0  0
    1.4840    0.0015   -0.0413 C   0  0  0  0  0  0  0  0  0  0  0  0
    2.0044   -1.4266   -0.0014 C   0  0  0  0  0  0  0  0  0  0  0  0
    2.2734   -2.0937   -1.2160 C   0  0  0  0  0  0  0  0  0  0  0  0
    2.7539   -3.4173   -1.2122 C   0  0  0  0  0  0  0  0  0  0  0  0
    3.1453   -4.3942   -3.0191 I   0  0  0  0  0  0  0  0  0  0  0  0
    2.9693   -4.0832    0.0086 C   0  0  0  0  0  0  0  0  0  0  0  0
    2.7004   -3.4256    1.2235 C   0  0  0  0  0  0  0  0  0  0  0  0
    2.2184   -2.1014    1.2252 C   0  0  0  0  0  0  0  0  0  0  0  0
    1.8634   -1.2592    2.8986 Br  0  0  0  0  0  0  0  0  0  0  0  0
   -0.3914    1.1017    0.0053 H   0  0  0  0  0  0  0  0  0  0  0  0
   -0.4123   -0.3708    0.9703 H   0  0  0  0  0  0  0  0  0  0  0  0
   -0.5086   -0.4671   -0.7868 H   0  0  0  0  0  0  0  0  0  0  0  0
    1.8161    0.4769   -0.9649 H   0  0  0  0  0  0  0  0  0  0  0  0
    1.9319    0.5823    0.7648 H   0  0  0  0  0  0  0  0  0  0  0  0
    2.1097   -1.5906   -2.1579 H   0  0  0  0  0  0  0  0  0  0  0  0
    3.3386   -5.0981    0.0144 H   0  0  0  0  0  0  0  0  0  0  0  0
    2.8639   -3.9406    2.1587 H   0  0  0  0  0  0  0  0  0  0  0  0
  1  2  1  0
  2  3  1  0
  3  4  2  0
  3  9  1  0
  4  5  1  0
  5  6  1  0
  5  7  2  0
  7  8  1  0
  8  9  2  0
  9 10  1  0
  1 11  1  0
  1 12  1  0
  1 13  1  0
  2 14  1  0
  2 15  1  0
  4 16  1  0
  7 17  1  0
  8 18  1  0
M  END
>  <idnumber>
Z1269132508

>  <heavy_atoms>
10

>  <LogS>
-4.264

>  <LogP>
5.156

>  <rotating_bonds>
1

>  <PSA>
0

>  <hb_acceptors>
0

>  <hb_donors>
0

>  <MolWt>
310.96

>  <NumHAcceptors>
0

>  <NumRotatableBonds>
2

>  <RingCount>
1

>  <NumHDonors>
0

>  <DIR_1>
CC

>  <DIR_2>
CCHAAA

>  <Favorite_cresset>
false

>  <Radial Plot_cresset>
0.500

>  <Confs_cresset>
0

>  <Alns_cresset>
0

>  <MW_cresset>
311

>  <#Atoms_cresset>
10

>  <SlogP_cresset>
4

>  <TPSA_cresset>
0

>  <Flexibility_cresset>
1

>  <Rof5_cresset>
0

>  <Filename_cresset>
test.sdf

$$$$
Z1269142199
  xed2sdf_05210316543D
 
 16 16  0  0  0  0  0  0  0  0999 V2000
   -0.0299    0.1024    0.0000 C   0  0  0  0  0  0  0  0  0  0  0  0
    1.3850   -0.0186    0.0000 O   0  0  0  0  0  0  0  0  0  0  0  0
    1.9312   -1.2851    0.0000 C   0  0  0  0  0  0  0  0  0  0  0  0
    1.1623   -2.4771    0.0000 C   0  0  0  0  0  0  0  0  0  0  0  0
    1.7945   -3.7358   -0.0000 C   0  0  0  0  0  0  0  0  0  0  0  0
    0.6433   -5.4814    0.0000 I   0  0  0  0  0  0  0  0  0  0  0  0
    3.1986   -3.8213    0.0000 C   0  0  0  0  0  0  0  0  0  0  0  0
    3.9704   -2.6453    0.0000 C   0  0  0  0  0  0  0  0  0  0  0  0
    3.3405   -1.3856   -0.0000 C   0  0  0  0  0  0  0  0  0  0  0  0
    4.4127    0.1889    0.0000 Br  0  0  0  0  0  0  0  0  0  0  0  0
   -0.3004    1.1581   -0.0000 H   0  0  0  0  0  0  0  0  0  0  0  0
   -0.4690   -0.3499    0.8902 H   0  0  0  0  0  0  0  0  0  0  0  0
   -0.4691   -0.3499   -0.8902 H   0  0  0  0  0  0  0  0  0  0  0  0
    0.0833   -2.4523    0.0000 H   0  0  0  0  0  0  0  0  0  0  0  0
    3.6832   -4.7865    0.0000 H   0  0  0  0  0  0  0  0  0  0  0  0
    5.0486   -2.7097    0.0000 H   0  0  0  0  0  0  0  0  0  0  0  0
  1  2  1  0
  2  3  1  0
  3  4  2  0
  3  9  1  0
  4  5  1  0
  5  6  1  0
  5  7  2  0
  7  8  1  0
  8  9  2  0
  9 10  1  0
  1 11  1  0
  1 12  1  0
  1 13  1  0
  4 14  1  0
  7 15  1  0
  8 16  1  0
M  END
>  <idnumber>
Z1269142199

>  <heavy_atoms>
10

>  <LogS>
-3.489

>  <LogP>
4.006

>  <rotating_bonds>
1

>  <PSA>
9.23

>  <hb_acceptors>
1

>  <hb_donors>
0

>  <MolWt>
312.932

>  <NumHAcceptors>
1

>  <NumRotatableBonds>
2

>  <RingCount>
1

>  <NumHDonors>
0

>  <DIR_1>
CC

>  <DIR_2>
CCGBAB

>  <Favorite_cresset>
false

>  <Radial Plot_cresset>
0.600

>  <Confs_cresset>
0

>  <Alns_cresset>
0

>  <MW_cresset>
312.9

>  <#Atoms_cresset>
10

>  <SlogP_cresset>
3.4

>  <TPSA_cresset>
9.2

>  <Flexibility_cresset>
0.5

>  <Rof5_cresset>
0

>  <Filename_cresset>
test.sdf

$$$$
Z1269215229
  xed2sdf_05210316543D
 
 16 16  0  0  0  0  0  0  0  0999 V2000
   -0.0261    0.0997    0.3100 O   0  0  0  0  0  0  0  0  0  0  0  0
    1.3391    0.0127   -0.0371 C   0  0  0  0  0  0  0  0  0  0  0  0
    1.8509   -1.4177   -0.0412 C   0  0  0  0  0  0  0  0  0  0  0  0
    2.6156   -1.8781    1.0527 C   0  0  0  0  0  0  0  0  0  0  0  0
    3.1038   -3.1986    1.0769 C   0  0  0  0  0  0  0  0  0  0  0  0
    2.8291   -4.0693    0.0063 C   0  0  0  0  0  0  0  0  0  0  0  0
    3.4874   -5.8545    0.0369 Br  0  0  0  0  0  0  0  0  0  0  0  0
    2.0657   -3.6182   -1.0867 C   0  0  0  0  0  0  0  0  0  0  0  0
    1.5745   -2.2976   -1.1162 C   0  0  0  0  0  0  0  0  0  0  0  0
    0.4401   -1.6970   -2.7730 I   0  0  0  0  0  0  0  0  0  0  0  0
   -0.2853    1.0081    0.2854 H   0  0  0  0  0  0  0  0  0  0  0  0
    1.4938    0.4680   -1.0153 H   0  0  0  0  0  0  0  0  0  0  0  0
    1.9138    0.6106    0.6710 H   0  0  0  0  0  0  0  0  0  0  0  0
    2.8298   -1.2188    1.8812 H   0  0  0  0  0  0  0  0  0  0  0  0
    3.6876   -3.5427    1.9179 H   0  0  0  0  0  0  0  0  0  0  0  0
    1.8544   -4.2885   -1.9068 H   0  0  0  0  0  0  0  0  0  0  0  0
  1  2  1  0
  2  3  1  0
  3  4  2  0
  3  9  1  0
  4  5  1  0
  5  6  2  0
  6  7  1  0
  6  8  1  0
  8  9  2  0
  9 10  1  0
  1 11  1  0
  2 12  1  0
  2 13  1  0
  4 14  1  0
  5 15  1  0
  8 16  1  0
M  END
>  <idnumber>
Z1269215229

>  <heavy_atoms>
10

>  <LogS>
-3.015

>  <LogP>
2.79

>  <rotating_bonds>
1

>  <PSA>
20.23

>  <hb_acceptors>
1

>  <hb_donors>
1

>  <MolWt>
312.932

>  <NumHAcceptors>
1

>  <NumRotatableBonds>
2

>  <RingCount>
1

>  <NumHDonors>
1

>  <DIR_1>
CC

>  <DIR_2>
CCFBBC

>  <Favorite_cresset>
false

>  <Radial Plot_cresset>
0.617

>  <Confs_cresset>
0

>  <Alns_cresset>
0

>  <MW_cresset>
312.9

>  <#Atoms_cresset>
10

>  <SlogP_cresset>
3.3

>  <TPSA_cresset>
20.2

>  <Flexibility_cresset>
2

>  <Rof5_cresset>
0

>  <Filename_cresset>
test.sdf

$$$$
Z1269159494
  xed2sdf_05210316543D
 
 16 16  0  0  0  0  0  0  0  0999 V2000
   -0.0235    0.0932    0.3200 O   0  0  0  0  0  0  0  0  0  0  0  0
    1.3383    0.0093   -0.0408 C   0  0  0  0  0  0  0  0  0  0  0  0
    1.8522   -1.4200   -0.0464 C   0  0  0  0  0  0  0  0  0  0  0  0
    2.6209   -1.8814    1.0438 C   0  0  0  0  0  0  0  0  0  0  0  0
    3.1089   -3.2022    1.0639 C   0  0  0  0  0  0  0  0  0  0  0  0
    4.2473   -3.8720    2.6849 I   0  0  0  0  0  0  0  0  0  0  0  0
    2.8301   -4.0714   -0.0072 C   0  0  0  0  0  0  0  0  0  0  0  0
    2.0626   -3.6186   -1.0967 C   0  0  0  0  0  0  0  0  0  0  0  0
    1.5718   -2.2978   -1.1212 C   0  0  0  0  0  0  0  0  0  0  0  0
    0.5322   -1.7328   -2.6163 Br  0  0  0  0  0  0  0  0  0  0  0  0
   -0.2862    1.0006    0.2939 H   0  0  0  0  0  0  0  0  0  0  0  0
    1.4805    0.4614   -1.0225 H   0  0  0  0  0  0  0  0  0  0  0  0
    1.9195    0.6097    0.6598 H   0  0  0  0  0  0  0  0  0  0  0  0
    2.8376   -1.2219    1.8715 H   0  0  0  0  0  0  0  0  0  0  0  0
    3.2030   -5.0849    0.0063 H   0  0  0  0  0  0  0  0  0  0  0  0
    1.8485   -4.2880   -1.9168 H   0  0  0  0  0  0  0  0  0  0  0  0
  1  2  1  0
  2  3  1  0
  3  4  2  0
  3  9  1  0
  4  5  1  0
  5  6  1  0
  5  7  2  0
  7  8  1  0
  8  9  2  0
  9 10  1  0
  1 11  1  0
  2 12  1  0
  2 13  1  0
  4 14  1  0
  7 15  1  0
  8 16  1  0
M  END
>  <idnumber>
Z1269159494

>  <heavy_atoms>
10

>  <LogS>
-3.076

>  <LogP>
3.09

>  <rotating_bonds>
1

>  <PSA>
20.23

>  <hb_acceptors>
1

>  <hb_donors>
1

>  <MolWt>
312.932

>  <NumHAcceptors>
1

>  <NumRotatableBonds>
2

>  <RingCount>
1

>  <NumHDonors>
1

>  <DIR_1>
CC

>  <DIR_2>
CCFBBC

>  <Favorite_cresset>
false

>  <Radial Plot_cresset>
0.617

>  <Confs_cresset>
0

>  <Alns_cresset>
0

>  <MW_cresset>
312.9

>  <#Atoms_cresset>
10

>  <SlogP_cresset>
3.3

>  <TPSA_cresset>
20.2

>  <Flexibility_cresset>
2

>  <Rof5_cresset>
0

>  <Filename_cresset>
test.sdf

$$$$
Z1416181930
  xed2sdf_05210316543D
 
 15 15  0  0  0  0  0  0  0  0999 V2000
    0.0534    0.0005    0.0000 N   0  0  0  0  0  0  0  0  0  0  0  0
    1.4473    0.0016    0.0000 C   0  0  0  0  0  0  0  0  0  0  0  0
    2.1540   -1.2170    0.0000 C   0  0  0  0  0  0  0  0  0  0  0  0
    3.5629   -1.2187    0.0000 C   0  0  0  0  0  0  0  0  0  0  0  0
    4.5812   -3.0485   -0.0000 I   0  0  0  0  0  0  0  0  0  0  0  0
    4.2699    0.0036    0.0000 C   0  0  0  0  0  0  0  0  0  0  0  0
    5.6357    0.0052    0.0000 O   0  0  0  0  0  0  0  0  0  0  0  0
    3.5610    1.2245    0.0000 C   0  0  0  0  0  0  0  0  0  0  0  0
    4.5779    3.0550   -0.0000 I   0  0  0  0  0  0  0  0  0  0  0  0
    2.1523    1.2212    0.0000 C   0  0  0  0  0  0  0  0  0  0  0  0
   -0.4761    0.8607   -0.0000 H   0  0  0  0  0  0  0  0  0  0  0  0
   -0.4736   -0.8611   -0.0001 H   0  0  0  0  0  0  0  0  0  0  0  0
    1.6183   -2.1552    0.0000 H   0  0  0  0  0  0  0  0  0  0  0  0
    6.0037    0.8757    0.0000 H   0  0  0  0  0  0  0  0  0  0  0  0
    1.6155    2.1588    0.0000 H   0  0  0  0  0  0  0  0  0  0  0  0
  1  2  1  0
  2  3  2  0
  2 10  1  0
  3  4  1  0
  4  5  1  0
  4  6  2  0
  6  7  1  0
  6  8  1  0
  8  9  1  0
  8 10  2  0
  1 11  1  0
  1 12  1  0
  3 13  1  0
  7 14  1  0
 10 15  1  0
M  END
>  <idnumber>
Z1416181930

>  <heavy_atoms>
10

>  <LogS>
-2.715

>  <LogP>
2.308

>  <rotating_bonds>
0

>  <PSA>
46.25

>  <hb_acceptors>
2

>  <hb_donors>
2

>  <MolWt>
360.92

>  <NumHAcceptors>
2

>  <NumRotatableBonds>
2

>  <RingCount>
1

>  <NumHDonors>
2

>  <DIR_1>
DC

>  <DIR_2>
DCECCD

>  <Favorite_cresset>
false

>  <Radial Plot_cresset>
0.642

>  <Confs_cresset>
0

>  <Alns_cresset>
0

>  <MW_cresset>
360.9

>  <#Atoms_cresset>
10

>  <SlogP_cresset>
2.7

>  <TPSA_cresset>
46.3

>  <Flexibility_cresset>
0.5

>  <Rof5_cresset>
0

>  <Filename_cresset>
test.sdf

$$$$
Z1416181930 (1)
  xed2sdf_05210316543D
 
 14 14  0  0  0  0  0  0  0  0999 V2000
    0.0217    0.0000    0.0000 N   0  0  0  0  0  0  0  0  0  0  0  0
    1.4160   -0.0000    0.0000 C   0  0  0  0  0  0  0  0  0  0  0  0
    2.1222   -1.2184    0.0000 C   0  0  0  0  0  0  0  0  0  0  0  0
    3.5310   -1.2225    0.0000 C   0  0  0  0  0  0  0  0  0  0  0  0
    4.5344   -3.0622   -0.0000 I   0  0  0  0  0  0  0  0  0  0  0  0
    4.2406    0.0000    0.0000 C   0  0  0  0  0  0  0  0  0  0  0  0
    5.6072    0.0000    0.0000 O   0  5  0  0  0  0  0  0  0  0  0  0
    3.5310    1.2225    0.0000 C   0  0  0  0  0  0  0  0  0  0  0  0
    4.5344    3.0622   -0.0000 I   0  0  0  0  0  0  0  0  0  0  0  0
    2.1222    1.2184    0.0000 C   0  0  0  0  0  0  0  0  0  0  0  0
   -0.5053    0.8614   -0.0000 H   0  0  0  0  0  0  0  0  0  0  0  0
   -0.5053   -0.8614   -0.0001 H   0  0  0  0  0  0  0  0  0  0  0  0
    1.5863   -2.1562    0.0000 H   0  0  0  0  0  0  0  0  0  0  0  0
    1.5863    2.1562    0.0000 H   0  0  0  0  0  0  0  0  0  0  0  0
  1  2  1  0
  2  3  2  0
  2 10  1  0
  3  4  1  0
  4  5  1  0
  4  6  2  0
  6  7  1  0
  6  8  1  0
  8  9  1  0
  8 10  2  0
  1 11  1  0
  1 12  1  0
  3 13  1  0
 10 14  1  0
M  CHG  1   7  -1
M  END
>  <idnumber>
Z1416181930

>  <heavy_atoms>
10

>  <LogS>
-2.715

>  <LogP>
2.308

>  <rotating_bonds>
0

>  <PSA>
46.25

>  <hb_acceptors>
2

>  <hb_donors>
2

>  <MolWt>
359.912

>  <NumHAcceptors>
2

>  <NumRotatableBonds>
1

>  <RingCount>
1

>  <NumHDonors>
1

>  <DIR_1>
DB

>  <DIR_2>
DBDCBD

>  <Favorite_cresset>
false

>  <Radial Plot_cresset>
0.645

>  <Confs_cresset>
0

>  <Alns_cresset>
0

>  <MW_cresset>
359.9

>  <#Atoms_cresset>
10

>  <SlogP_cresset>
2.7

>  <TPSA_cresset>
49.1

>  <Flexibility_cresset>
0

>  <Rof5_cresset>
0

>  <Filename_cresset>
test.sdf

$$$$
Z1939441373
  xed2sdf_05210316543D
 
 17 17  0  0  0  0  0  0  0  0999 V2000
   -0.0226   -0.0357    0.0000 C   0  0  0  0  0  0  0  0  0  0  0  0
    1.4957    0.0191    0.0000 C   0  0  0  0  0  0  0  0  0  0  0  0
    2.2022   -1.2022    0.0000 C   0  0  0  0  0  0  0  0  0  0  0  0
    3.6109   -1.2205    0.0000 C   0  0  0  0  0  0  0  0  0  0  0  0
    4.2823   -2.4429   -0.0000 N   0  0  0  0  0  0  0  0  0  0  0  0
    4.3258   -0.0042    0.0000 C   0  0  0  0  0  0  0  0  0  0  0  0
    6.2324    0.0144    0.0000 Br  0  0  0  0  0  0  0  0  0  0  0  0
    3.6257    1.2169    0.0000 C   0  0  0  0  0  0  0  0  0  0  0  0
    2.2168    1.2393   -0.0000 C   0  0  0  0  0  0  0  0  0  0  0  0
    1.2746    3.1123    0.0000 I   0  0  0  0  0  0  0  0  0  0  0  0
   -0.4976    0.9427   -0.0000 H   0  0  0  0  0  0  0  0  0  0  0  0
   -0.3730   -0.5727    0.8817 H   0  0  0  0  0  0  0  0  0  0  0  0
   -0.3730   -0.5727   -0.8817 H   0  0  0  0  0  0  0  0  0  0  0  0
    1.6547   -2.1338    0.0000 H   0  0  0  0  0  0  0  0  0  0  0  0
    5.2915   -2.4865    0.0000 H   0  0  0  0  0  0  0  0  0  0  0  0
    3.7846   -3.3217    0.0001 H   0  0  0  0  0  0  0  0  0  0  0  0
    4.1753    2.1467    0.0000 H   0  0  0  0  0  0  0  0  0  0  0  0
  1  2  1  0
  2  3  2  0
  2  9  1  0
  3  4  1  0
  4  5  1  0
  4  6  2  0
  6  7  1  0
  6  8  1  0
  8  9  2  0
  9 10  1  0
  1 11  1  0
  1 12  1  0
  1 13  1  0
  3 14  1  0
  5 15  1  0
  5 16  1  0
  8 17  1  0
M  END
>  <idnumber>
Z1939441373

>  <heavy_atoms>
10

>  <LogS>
-3.568

>  <LogP>
3.528

>  <rotating_bonds>
0

>  <PSA>
26.02

>  <hb_acceptors>
1

>  <hb_donors>
1

>  <MolWt>
311.948

>  <NumHAcceptors>
1

>  <NumRotatableBonds>
2

>  <RingCount>
1

>  <NumHDonors>
1

>  <DIR_1>
CC

>  <DIR_2>
CCFBBC

>  <Favorite_cresset>
false

>  <Radial Plot_cresset>
0.617

>  <Confs_cresset>
0

>  <Alns_cresset>
0

>  <MW_cresset>
311.9

>  <#Atoms_cresset>
10

>  <SlogP_cresset>
3.3

>  <TPSA_cresset>
26

>  <Flexibility_cresset>
0

>  <Rof5_cresset>
0

>  <Filename_cresset>
test.sdf

$$$$
Z1868459499
  xed2sdf_05210316543D
 
 14 14  0  0  0  0  0  0  0  0999 V2000
    0.0310   -0.0002    0.0000 N   0  0  0  0  0  0  0  0  0  0  0  0
    1.4276   -0.0020    0.0000 C   0  0  0  0  0  0  0  0  0  0  0  0
    2.1388   -1.2257    0.0000 C   0  0  0  0  0  0  0  0  0  0  0  0
    1.2857   -2.7329    0.0000 Cl  0  0  0  0  0  0  0  0  0  0  0  0
    3.5518   -1.2175   -0.0000 C   0  0  0  0  0  0  0  0  0  0  0  0
    4.5407   -2.8465    0.0000 Br  0  0  0  0  0  0  0  0  0  0  0  0
    4.2493    0.0052    0.0000 C   0  0  0  0  0  0  0  0  0  0  0  0
    3.5425    1.2215    0.0000 C   0  0  0  0  0  0  0  0  0  0  0  0
    2.1346    1.2223   -0.0000 C   0  0  0  0  0  0  0  0  0  0  0  0
    1.1288    3.0610    0.0000 I   0  0  0  0  0  0  0  0  0  0  0  0
   -0.4954    0.8618   -0.0000 H   0  0  0  0  0  0  0  0  0  0  0  0
   -0.4970   -0.8615   -0.0001 H   0  0  0  0  0  0  0  0  0  0  0  0
    5.3294    0.0110    0.0000 H   0  0  0  0  0  0  0  0  0  0  0  0
    4.0824    2.1569    0.0000 H   0  0  0  0  0  0  0  0  0  0  0  0
  1  2  1  0
  2  3  2  0
  2  9  1  0
  3  4  1  0
  3  5  1  0
  5  6  1  0
  5  7  2  0
  7  8  1  0
  8  9  2  0
  9 10  1  0
  1 11  1  0
  1 12  1  0
  7 13  1  0
  8 14  1  0
M  END
>  <idnumber>
Z1868459499

>  <heavy_atoms>
10

>  <LogS>
-4.024

>  <LogP>
3.886

>  <rotating_bonds>
0

>  <PSA>
26.02

>  <hb_acceptors>
1

>  <hb_donors>
1

>  <MolWt>
332.366

>  <NumHAcceptors>
1

>  <NumRotatableBonds>
1

>  <RingCount>
1

>  <NumHDonors>
1

>  <DIR_1>
CB

>  <DIR_2>
CBGBBC

>  <Favorite_cresset>
false

>  <Radial Plot_cresset>
0.550

>  <Confs_cresset>
0

>  <Alns_cresset>
0

>  <MW_cresset>
332.4

>  <#Atoms_cresset>
10

>  <SlogP_cresset>
3.7

>  <TPSA_cresset>
26

>  <Flexibility_cresset>
0

>  <Rof5_cresset>
0

>  <Filename_cresset>
test.sdf

$$$$
Z1269241362
  xed2sdf_05210316543D
 
 15 16  0  0  0  0  0  0  0  0999 V2000
   -1.6197   -1.1380    2.1531 Br  0  0  0  0  0  0  0  0  0  0  0  0
    0.0771   -0.2778    2.2367 C   0  0  0  0  0  0  0  0  0  0  0  0
    0.1337    1.0989    2.5386 C   0  0  0  0  0  0  0  0  0  0  0  0
    1.2819    1.8038    2.6225 N   0  0  0  0  0  0  0  0  0  0  0  0
    2.4443    1.1549    2.4050 C   0  0  0  0  0  0  0  0  0  0  0  0
    2.4837   -0.2187    2.0976 C   0  0  0  0  0  0  0  0  0  0  0  0
    3.5288   -1.0893    1.8383 N   0  0  0  0  0  0  0  0  0  0  0  0
    3.0548   -2.3648    1.5852 C   0  0  0  0  0  0  0  0  0  0  0  0
    1.6906   -2.3297    1.6792 C   0  0  0  0  0  0  0  0  0  0  0  0
    0.4548   -3.9935    1.3881 I   0  0  0  0  0  0  0  0  0  0  0  0
    1.2836   -0.9871    2.0030 C   0  0  0  0  0  0  0  0  0  0  0  0
   -0.7757    1.6528    2.7191 H   0  0  0  0  0  0  0  0  0  0  0  0
    3.3510    1.7374    2.4769 H   0  0  0  0  0  0  0  0  0  0  0  0
    4.5113   -0.8553    1.8281 H   0  0  0  0  0  0  0  0  0  0  0  0
    3.7231   -3.1834    1.3613 H   0  0  0  0  0  0  0  0  0  0  0  0
  1  2  1  0
  2  3  2  0
  2 11  1  0
  3  4  1  0
  4  5  2  0
  5  6  1  0
  6  7  1  0
  6 11  2  0
  7  8  1  0
  8  9  2  0
  9 10  1  0
  9 11  1  0
  3 12  1  0
  5 13  1  0
  7 14  1  0
  8 15  1  0
M  END
>  <idnumber>
Z1269241362

>  <heavy_atoms>
11

>  <LogS>
-3.115

>  <LogP>
3.292

>  <rotating_bonds>
0

>  <PSA>
28.68

>  <hb_acceptors>
1

>  <hb_donors>
1

>  <MolWt>
322.931

>  <NumHAcceptors>
1

>  <NumRotatableBonds>
0

>  <RingCount>
2

>  <NumHDonors>
1

>  <DIR_1>
CA

>  <DIR_2>
CAFBBC

>  <Favorite_cresset>
false

>  <Radial Plot_cresset>
0.617

>  <Confs_cresset>
0

>  <Alns_cresset>
0

>  <MW_cresset>
322.9

>  <#Atoms_cresset>
11

>  <SlogP_cresset>
3.3

>  <TPSA_cresset>
28.7

>  <Flexibility_cresset>
0

>  <Rof5_cresset>
0

>  <Filename_cresset>
test.sdf

$$$$
Z1389087052
  xed2sdf_05210316543D
 
 15 16  0  0  0  0  0  0  0  0999 V2000
   -1.3921   -1.7016   -7.9566 Br  0  0  0  0  0  0  0  0  0  0  0  0
   -0.9740   -1.2324   -6.1608 C   0  0  0  0  0  0  0  0  0  0  0  0
   -0.8860   -2.2388   -5.1710 C   0  0  0  0  0  0  0  0  0  0  0  0
   -0.5843   -1.9086   -3.8705 C   0  0  0  0  0  0  0  0  0  0  0  0
   -0.4602   -3.4162   -2.4251 I   0  0  0  0  0  0  0  0  0  0  0  0
   -0.3580   -0.5520   -3.5089 C   0  0  0  0  0  0  0  0  0  0  0  0
   -0.0563    0.0407   -2.3538 N   0  0  0  0  0  0  0  0  0  0  0  0
    0.0399    1.3977   -2.6323 C   0  0  0  0  0  0  0  0  0  0  0  0
   -0.2019    1.6406   -3.9558 C   0  0  0  0  0  0  0  0  0  0  0  0
   -0.4592    0.4136   -4.5414 N   0  0  0  0  0  0  0  0  0  0  0  0
   -0.7584    0.0844   -5.8299 C   0  0  0  0  0  0  0  0  0  0  0  0
   -1.0568   -3.2771   -5.4355 H   0  0  0  0  0  0  0  0  0  0  0  0
    0.2786    2.1022   -1.8488 H   0  0  0  0  0  0  0  0  0  0  0  0
   -0.2194    2.5465   -4.5436 H   0  0  0  0  0  0  0  0  0  0  0  0
   -0.8134    0.8948   -6.5493 H   0  0  0  0  0  0  0  0  0  0  0  0
  1  2  1  0
  2  3  1  0
  2 11  2  0
  3  4  2  0
  4  5  1  0
  4  6  1  0
  6  7  2  0
  6 10  1  0
  7  8  1  0
  8  9  2  0
  9 10  1  0
 10 11  1  0
  3 12  1  0
  8 13  1  0
  9 14  1  0
 11 15  1  0
M  END
>  <idnumber>
Z1389087052

>  <heavy_atoms>
11

>  <LogS>
-2.973

>  <LogP>
3.406

>  <rotating_bonds>
0

>  <PSA>
17.3

>  <hb_acceptors>
1

>  <hb_donors>
0

>  <MolWt>
322.931

>  <NumHAcceptors>
2

>  <NumRotatableBonds>
0

>  <RingCount>
2

>  <NumHDonors>
0

>  <DIR_1>
CA

>  <DIR_2>
CAFCAB

>  <Favorite_cresset>
false

>  <Radial Plot_cresset>
0.667

>  <Confs_cresset>
0

>  <Alns_cresset>
0

>  <MW_cresset>
322.9

>  <#Atoms_cresset>
11

>  <SlogP_cresset>
3

>  <TPSA_cresset>
17.3

>  <Flexibility_cresset>
0

>  <Rof5_cresset>
0

>  <Filename_cresset>
test.sdf

$$$$
Z1726025913
  xed2sdf_05210316543D
 
 18 18  0  0  0  0  0  0  0  0999 V2000
   -0.5787    1.2680    0.0000 C   0  0  0  0  0  0  0  0  0  0  0  0
    0.0016   -0.0269    0.0000 O   0  0  0  0  0  0  0  0  0  0  0  0
    1.3718   -0.0084    0.0000 C   0  0  0  0  0  0  0  0  0  0  0  0
    2.0823   -0.0132   -1.2213 C   0  0  0  0  0  0  0  0  0  0  0  0
    1.0676   -0.0563   -3.0521 I   0  0  0  0  0  0  0  0  0  0  0  0
    3.4909    0.0025   -1.2188 C   0  0  0  0  0  0  0  0  0  0  0  0
    4.1969    0.0130    0.0000 C   0  0  0  0  0  0  0  0  0  0  0  0
    5.5907    0.0271    0.0000 N   0  0  0  0  0  0  0  0  0  0  0  0
    3.4909    0.0025    1.2188 C   0  0  0  0  0  0  0  0  0  0  0  0
    2.0823   -0.0132    1.2213 C   0  0  0  0  0  0  0  0  0  0  0  0
    1.0676   -0.0563    3.0521 I   0  0  0  0  0  0  0  0  0  0  0  0
   -1.6649    1.1799   -0.0000 H   0  0  0  0  0  0  0  0  0  0  0  0
   -0.2878    1.8351   -0.8851 H   0  0  0  0  0  0  0  0  0  0  0  0
   -0.2878    1.8352    0.8851 H   0  0  0  0  0  0  0  0  0  0  0  0
    4.0266    0.0023   -2.1571 H   0  0  0  0  0  0  0  0  0  0  0  0
    6.1185   -0.0016    0.8607 H   0  0  0  0  0  0  0  0  0  0  0  0
    6.1185   -0.0016   -0.8607 H   0  0  0  0  0  0  0  0  0  0  0  0
    4.0266    0.0023    2.1571 H   0  0  0  0  0  0  0  0  0  0  0  0
  1  2  1  0
  2  3  1  0
  3  4  2  0
  3 10  1  0
  4  5  1  0
  4  6  1  0
  6  7  2  0
  7  8  1  0
  7  9  1  0
  9 10  2  0
 10 11  1  0
  1 12  1  0
  1 13  1  0
  1 14  1  0
  6 15  1  0
  8 16  1  0
  8 17  1  0
  9 18  1  0
M  END
>  <idnumber>
Z1726025913

>  <heavy_atoms>
11

>  <LogS>
-3.116

>  <LogP>
2.976

>  <rotating_bonds>
1

>  <PSA>
35.25

>  <hb_acceptors>
2

>  <hb_donors>
1

>  <MolWt>
374.947

>  <NumHAcceptors>
2

>  <NumRotatableBonds>
3

>  <RingCount>
1

>  <NumHDonors>
1

>  <DIR_1>
DC

>  <DIR_2>
DCECBC

>  <Favorite_cresset>
false

>  <Radial Plot_cresset>
0.611

>  <Confs_cresset>
0

>  <Alns_cresset>
0

>  <MW_cresset>
374.9

>  <#Atoms_cresset>
11

>  <SlogP_cresset>
3

>  <TPSA_cresset>
35.3

>  <Flexibility_cresset>
0.5

>  <Rof5_cresset>
0

>  <Filename_cresset>
test.sdf

$$$$
Z1269213730
  xed2sdf_05210316543D
 
 14 14  0  0  0  0  0  0  0  0999 V2000
   -0.6507   -1.1558    0.0000 O   0  5  0  0  0  0  0  0  0  0  0  0
   -0.0721   -0.0470    0.0000 C   0  0  0  0  0  0  0  0  0  0  0  0
   -0.7439    1.0054    0.0000 O   0  0  0  0  0  0  0  0  0  0  0  0
    1.4468    0.0024    0.0000 C   0  0  0  0  0  0  0  0  0  0  0  0
    2.1866   -1.2172   -0.0000 C   0  0  0  0  0  0  0  0  0  0  0  0
    1.5674   -2.4237    0.0000 F   0  0  0  0  0  0  0  0  0  0  0  0
    3.5950   -1.2167    0.0000 C   0  0  0  0  0  0  0  0  0  0  0  0
    4.5525   -2.8627    0.0000 Br  0  0  0  0  0  0  0  0  0  0  0  0
    4.3023   -0.0067   -0.0000 C   0  0  0  0  0  0  0  0  0  0  0  0
    3.5971    1.2049    0.0000 C   0  0  0  0  0  0  0  0  0  0  0  0
    2.1878    1.2289   -0.0000 C   0  0  0  0  0  0  0  0  0  0  0  0
    1.3758    3.1695   -0.0000 I   0  0  0  0  0  0  0  0  0  0  0  0
    5.3822   -0.0060    0.0000 H   0  0  0  0  0  0  0  0  0  0  0  0
    4.1472    2.1344    0.0000 H   0  0  0  0  0  0  0  0  0  0  0  0
  1  2  1  0
  2  3  2  0
  2  4  1  0
  4  5  2  0
  4 11  1  0
  5  6  1  0
  5  7  1  0
  7  8  1  0
  7  9  2  0
  9 10  1  0
 10 11  2  0
 11 12  1  0
  9 13  1  0
 10 14  1  0
M  CHG  1   1  -1
M  END
>  <idnumber>
Z1269213730

>  <heavy_atoms>
12

>  <LogS>
-3.852

>  <LogP>
3.088

>  <rotating_bonds>
1

>  <PSA>
37.3

>  <hb_acceptors>
2

>  <hb_donors>
1

>  <MolWt>
343.897

>  <NumHAcceptors>
2

>  <NumRotatableBonds>
1

>  <RingCount>
1

>  <NumHDonors>
0

>  <DIR_1>
CB

>  <DIR_2>
CBDCAD

>  <Favorite_cresset>
false

>  <Radial Plot_cresset>
0.583

>  <Confs_cresset>
0

>  <Alns_cresset>
0

>  <MW_cresset>
343.9

>  <#Atoms_cresset>
12

>  <SlogP_cresset>
3.5

>  <TPSA_cresset>
40.1

>  <Flexibility_cresset>
0.3

>  <Rof5_cresset>
0

>  <Filename_cresset>
test.sdf

$$$$
Z1269173224
  xed2sdf_05210316543D
 
 16 16  0  0  0  0  0  0  0  0999 V2000
   -0.0993   -0.3764   -1.4190 F   0  0  0  0  0  0  0  0  0  0  0  0
    0.0381   -0.0159   -0.1203 C   0  0  0  0  0  0  0  0  0  0  0  0
   -0.8929   -0.6946    0.5943 F   0  0  0  0  0  0  0  0  0  0  0  0
    1.2888   -0.3263    0.3132 O   0  0  0  0  0  0  0  0  0  0  0  0
    1.8822    0.4620    1.2735 C   0  0  0  0  0  0  0  0  0  0  0  0
    1.1460    1.0845    2.3105 C   0  0  0  0  0  0  0  0  0  0  0  0
    1.8024    1.8679    3.2796 C   0  0  0  0  0  0  0  0  0  0  0  0
    0.7997    2.7044    4.6639 Br  0  0  0  0  0  0  0  0  0  0  0  0
    3.1993    2.0306    3.2267 C   0  0  0  0  0  0  0  0  0  0  0  0
    3.9397    1.4051    2.2062 C   0  0  0  0  0  0  0  0  0  0  0  0
    3.2846    0.6217    1.2359 C   0  0  0  0  0  0  0  0  0  0  0  0
    4.3075   -0.2161   -0.1347 Br  0  0  0  0  0  0  0  0  0  0  0  0
   -0.1598    1.0540   -0.0489 H   0  0  0  0  0  0  0  0  0  0  0  0
    0.0750    0.9636    2.3762 H   0  0  0  0  0  0  0  0  0  0  0  0
    3.7034    2.6311    3.9696 H   0  0  0  0  0  0  0  0  0  0  0  0
    5.0123    1.5259    2.1683 H   0  0  0  0  0  0  0  0  0  0  0  0
  1  2  1  0
  2  3  1  0
  2  4  1  0
  4  5  1  0
  5  6  2  0
  5 11  1  0
  6  7  1  0
  7  8  1  0
  7  9  2  0
  9 10  1  0
 10 11  2  0
 11 12  1  0
  2 13  1  0
  6 14  1  0
  9 15  1  0
 10 16  1  0
M  END
>  <idnumber>
Z1269173224

>  <heavy_atoms>
12

>  <LogS>
-4.229

>  <LogP>
4.192

>  <rotating_bonds>
2

>  <PSA>
9.23

>  <hb_acceptors>
1

>  <hb_donors>
0

>  <MolWt>
301.912

>  <NumHAcceptors>
1

>  <NumRotatableBonds>
2

>  <RingCount>
1

>  <NumHDonors>
0

>  <DIR_1>
CC

>  <DIR_2>
CCHBAB

>  <Favorite_cresset>
false

>  <Radial Plot_cresset>
0.500

>  <Confs_cresset>
0

>  <Alns_cresset>
0

>  <MW_cresset>
301.9

>  <#Atoms_cresset>
12

>  <SlogP_cresset>
4

>  <TPSA_cresset>
9.2

>  <Flexibility_cresset>
1.5

>  <Rof5_cresset>
0

>  <Filename_cresset>
test.sdf

$$$$
Z1269170840
  xed2sdf_05210316543D
 
 17 18  0  0  0  0  0  0  0  0999 V2000
    1.1631   -5.3674    7.4984 Br  0  0  0  0  0  0  0  0  0  0  0  0
    2.2053   -4.8902    5.9797 C   0  0  0  0  0  0  0  0  0  0  0  0
    1.5790   -4.6260    4.7491 C   0  0  0  0  0  0  0  0  0  0  0  0
    2.3461   -4.2723    3.6215 C   0  0  0  0  0  0  0  0  0  0  0  0
    1.3469   -3.8922    1.8191 I   0  0  0  0  0  0  0  0  0  0  0  0
    3.7562   -4.1762    3.7046 C   0  0  0  0  0  0  0  0  0  0  0  0
    4.4926   -3.8360    2.6198 N   0  0  0  0  0  0  0  0  0  0  0  0
    5.8348   -3.7530    2.7320 C   0  0  0  0  0  0  0  0  0  0  0  0
    6.5252   -4.0038    3.9316 C   0  0  0  0  0  0  0  0  0  0  0  0
    5.7769   -4.3583    5.0681 C   0  0  0  0  0  0  0  0  0  0  0  0
    4.3738   -4.4472    4.9589 C   0  0  0  0  0  0  0  0  0  0  0  0
    3.6041   -4.8009    6.0854 C   0  0  0  0  0  0  0  0  0  0  0  0
    0.5041   -4.6948    4.6684 H   0  0  0  0  0  0  0  0  0  0  0  0
    6.3741   -3.4781    1.8376 H   0  0  0  0  0  0  0  0  0  0  0  0
    7.6015   -3.9260    3.9777 H   0  0  0  0  0  0  0  0  0  0  0  0
    6.2751   -4.5579    6.0057 H   0  0  0  0  0  0  0  0  0  0  0  0
    4.0832   -5.0043    7.0323 H   0  0  0  0  0  0  0  0  0  0  0  0
  1  2  1  0
  2  3  2  0
  2 12  1  0
  3  4  1  0
  4  5  1  0
  4  6  2  0
  6  7  1  0
  6 11  1  0
  7  8  2  0
  8  9  1  0
  9 10  2  0
 10 11  1  0
 11 12  2  0
  3 13  1  0
  8 14  1  0
  9 15  1  0
 10 16  1  0
 12 17  1  0
M  END
>  <idnumber>
Z1269170840

>  <heavy_atoms>
12

>  <LogS>
-4.084

>  <LogP>
4.1

>  <rotating_bonds>
0

>  <PSA>
12.89

>  <hb_acceptors>
1

>  <hb_donors>
0

>  <MolWt>
333.954

>  <NumHAcceptors>
1

>  <NumRotatableBonds>
0

>  <RingCount>
2

>  <NumHDonors>
0

>  <DIR_1>
CA

>  <DIR_2>
CAHBAB

>  <Favorite_cresset>
false

>  <Radial Plot_cresset>
0.517

>  <Confs_cresset>
0

>  <Alns_cresset>
0

>  <MW_cresset>
334

>  <#Atoms_cresset>
12

>  <SlogP_cresset>
3.9

>  <TPSA_cresset>
12.9

>  <Flexibility_cresset>
0

>  <Rof5_cresset>
0

>  <Filename_cresset>
test.sdf

$$$$
Z1269170925
  xed2sdf_05210316543D
 
 14 14  0  0  0  0  0  0  0  0999 V2000
   -0.4550    1.2475    0.0062 F   0  0  0  0  0  0  0  0  0  0  0  0
   -0.0095   -0.0088    0.0152 C   0  0  0  0  0  0  0  0  0  0  0  0
   -0.5073   -0.6279    1.0875 F   0  0  0  0  0  0  0  0  0  0  0  0
   -0.4550   -0.6291   -1.0773 F   0  0  0  0  0  0  0  0  0  0  0  0
    1.5125   -0.0061    0.0105 C   0  0  0  0  0  0  0  0  0  0  0  0
    2.2142    0.6062   -1.0500 C   0  0  0  0  0  0  0  0  0  0  0  0
    3.6222    0.5937   -1.0284 C   0  0  0  0  0  0  0  0  0  0  0  0
    4.6883    1.4948   -2.5890 I   0  0  0  0  0  0  0  0  0  0  0  0
    4.2765   -0.0314    0.0545 C   0  0  0  0  0  0  0  0  0  0  0  0
    5.9994   -0.0913    0.1581 Cl  0  0  0  0  0  0  0  0  0  0  0  0
    3.4867   -0.6150    1.0652 C   0  0  0  0  0  0  0  0  0  0  0  0
    2.1365   -0.6066    1.0507 N   0  0  0  0  0  0  0  0  0  0  0  0
    1.6817    1.0760   -1.8637 H   0  0  0  0  0  0  0  0  0  0  0  0
    3.9510   -1.1026    1.9098 H   0  0  0  0  0  0  0  0  0  0  0  0
  1  2  1  0
  2  3  1  0
  2  4  1  0
  2  5  1  0
  5  6  2  0
  5 12  1  0
  6  7  1  0
  7  8  1  0
  7  9  2  0
  9 10  1  0
  9 11  1  0
 11 12  2  0
  6 13  1  0
 11 14  1  0
M  END
>  <idnumber>
Z1269170925

>  <heavy_atoms>
12

>  <LogS>
-3.285

>  <LogP>
3.551

>  <rotating_bonds>
1

>  <PSA>
12.89

>  <hb_acceptors>
1

>  <hb_donors>
0

>  <MolWt>
307.44

>  <NumHAcceptors>
1

>  <NumRotatableBonds>
0

>  <RingCount>
1

>  <NumHDonors>
0

>  <DIR_1>
CA

>  <DIR_2>
CAGBAB

>  <Favorite_cresset>
false

>  <Radial Plot_cresset>
0.550

>  <Confs_cresset>
0

>  <Alns_cresset>
0

>  <MW_cresset>
307.4

>  <#Atoms_cresset>
12

>  <SlogP_cresset>
3.7

>  <TPSA_cresset>
12.9

>  <Flexibility_cresset>
0

>  <Rof5_cresset>
0

>  <Filename_cresset>
test.sdf

$$$$
